hec
 OpenBabel10292106283D

 79 86  0  0  0  0  0  0  0  0999 V2000
   44.6300   28.1270    5.9110 Fe  0  0  1  0  0  0  0  0  0  0  0  0
   43.6030   27.2590    9.1220 C   0  0  0  0  0  0  0  0  0  0  0  0
   46.1500   25.1840    5.6020 C   0  0  0  0  0  0  0  0  0  0  0  0
   44.9070   28.7350    2.5670 C   0  0  0  0  0  0  0  0  0  0  0  0
   43.8280   31.3520    6.4700 C   0  0  0  0  0  0  0  0  0  0  0  0
   44.8540   26.5750    7.1690 N   0  0  0  0  0  0  0  0  0  0  0  0
   44.3310   26.3330    8.4120 C   0  0  0  0  0  0  0  0  0  0  0  0
   44.6040   24.9360    8.7430 C   0  0  0  0  0  0  0  0  0  0  0  0
   45.2740   24.3800    7.7850 C   0  0  0  0  0  0  0  0  0  0  0  0
   45.4550   25.3820    6.7510 C   0  0  0  0  0  0  0  0  0  0  0  0
   45.9220   22.9890    7.4410 C   0  0  0  0  0  0  0  0  0  0  0  0
   44.1370   24.3090   10.0980 C   0  0  0  0  0  0  0  0  0  0  0  0
   45.3900   24.2900   11.0680 C   0  0  0  0  0  0  0  0  0  0  0  0
   45.1650   23.6300   12.3920 C   0  0  0  0  0  0  0  0  0  0  0  0
   45.9410   24.0230   13.3290 O   0  0  0  0  0  0  0  0  0  0  0  0
   44.2600   22.7630   12.4810 O   0  0  0  0  0  0  0  0  0  0  0  0
   45.3800   27.1460    4.4040 N   0  0  0  0  0  4  0  0  0  0  0  0
   46.0450   25.9290    4.4540 C   0  0  0  0  0  0  0  0  0  0  0  0
   46.5480   25.5810    3.1680 C   0  0  0  0  0  0  0  0  0  0  0  0
   46.1940   26.5430    2.3150 C   0  0  0  0  0  0  0  0  0  0  0  0
   45.4750   27.5820    3.0750 C   0  0  0  0  0  0  0  0  0  0  0  0
   47.3500   24.2780    2.8360 C   0  0  0  0  0  0  0  0  0  0  0  0
   46.4600   26.6590    0.8110 C   0  0  0  0  0  0  0  0  0  0  0  0
   45.6510   25.8170   -0.1770 C   0  0  0  0  0  0  0  0  0  0  0  0
   44.3780   29.7570    4.7190 N   0  0  0  0  0  0  0  0  0  0  0  0
   44.5450   29.8250    3.3420 C   0  0  0  0  0  0  0  0  0  0  0  0
   44.3690   31.1760    2.9190 C   0  0  0  0  0  0  0  0  0  0  0  0
   44.0420   31.9350    4.0000 C   0  0  0  0  0  0  0  0  0  0  0  0
   44.1000   31.0410    5.1510 C   0  0  0  0  0  0  0  0  0  0  0  0
   44.4990   31.6800    1.4560 C   0  0  0  0  0  0  0  0  0  0  0  0
   43.8610   33.4640    4.0890 C   0  0  0  0  0  0  0  0  0  0  0  0
   43.0180   34.1680    3.0030 C   0  0  0  0  0  0  0  0  0  0  0  0
   43.9020   29.1280    7.4590 N   0  0  0  0  0  4  0  0  0  0  0  0
   43.6340   30.4690    7.5050 C   0  0  0  0  0  0  0  0  0  0  0  0
   43.0590   30.7730    8.8080 C   0  0  0  0  0  0  0  0  0  0  0  0
   42.9960   29.6690    9.5050 C   0  0  0  0  0  0  0  0  0  0  0  0
   43.4970   28.5780    8.6930 C   0  0  0  0  0  0  0  0  0  0  0  0
   42.6400   32.2080    9.2190 C   0  0  0  0  0  0  0  0  0  0  0  0
   42.4650   29.4760   10.9590 C   0  0  0  0  0  0  0  0  0  0  0  0
   40.9400   29.3070   10.8860 C   0  0  0  0  0  0  0  0  0  0  0  0
   40.1970   29.1790   12.1810 C   0  0  0  0  0  0  0  0  0  0  0  0
   40.7690   29.1210   13.2700 O   0  0  0  0  0  0  0  0  0  0  0  0
   38.9630   29.1080   11.9800 O   0  0  0  0  0  0  0  0  0  0  0  0
   43.1260   26.9696    9.9902 H   0  0  0  0  0  0  0  0  0  0  0  0
   46.8204   24.3995    5.5905 H   0  0  0  0  0  0  0  0  0  0  0  0
   44.7427   28.7872    1.5495 H   0  0  0  0  0  0  0  0  0  0  0  0
   43.7637   32.3554    6.7026 H   0  0  0  0  0  0  0  0  0  0  0  0
   46.3866   23.0402    6.4785 H   0  0  0  0  0  0  0  0  0  0  0  0
   45.1632   22.2347    7.4311 H   0  0  0  0  0  0  0  0  0  0  0  0
   46.6571   22.7456    8.1794 H   0  0  0  0  0  0  0  0  0  0  0  0
   43.7838   23.3119    9.9371 H   0  0  0  0  0  0  0  0  0  0  0  0
   43.3385   24.8803   10.5234 H   0  0  0  0  0  0  0  0  0  0  0  0
   45.6828   25.3031   11.2494 H   0  0  0  0  0  0  0  0  0  0  0  0
   46.1390   23.7090   10.5717 H   0  0  0  0  0  0  0  0  0  0  0  0
   46.5873   24.6794   13.1577 H   0  0  0  0  0  0  0  0  0  0  0  0
   47.6046   24.2709    1.7968 H   0  0  0  0  0  0  0  0  0  0  0  0
   46.7490   23.4220    3.0618 H   0  0  0  0  0  0  0  0  0  0  0  0
   48.2445   24.2506    3.4225 H   0  0  0  0  0  0  0  0  0  0  0  0
   46.2994   27.6835    0.5473 H   0  0  0  0  0  0  0  0  0  0  0  0
   47.4526   26.2734    0.7068 H   0  0  0  0  0  0  0  0  0  0  0  0
   44.6266   26.1251   -0.1529 H   0  0  0  0  0  0  0  0  0  0  0  0
   45.7194   24.7844    0.0949 H   0  0  0  0  0  0  0  0  0  0  0  0
   46.0411   25.9525   -1.1641 H   0  0  0  0  0  0  0  0  0  0  0  0
   44.7671   30.8626    0.8197 H   0  0  0  0  0  0  0  0  0  0  0  0
   45.2555   32.4350    1.4047 H   0  0  0  0  0  0  0  0  0  0  0  0
   43.5639   32.0897    1.1355 H   0  0  0  0  0  0  0  0  0  0  0  0
   43.4010   33.6738    5.0320 H   0  0  0  0  0  0  0  0  0  0  0  0
   44.8476   33.8543    3.9505 H   0  0  0  0  0  0  0  0  0  0  0  0
   42.0034   33.8343    3.0670 H   0  0  0  0  0  0  0  0  0  0  0  0
   43.4113   33.9307    2.0366 H   0  0  0  0  0  0  0  0  0  0  0  0
   43.0553   35.2268    3.1531 H   0  0  0  0  0  0  0  0  0  0  0  0
   42.8257   32.8800    8.4073 H   0  0  0  0  0  0  0  0  0  0  0  0
   43.2075   32.5145   10.0728 H   0  0  0  0  0  0  0  0  0  0  0  0
   41.5977   32.2198    9.4605 H   0  0  0  0  0  0  0  0  0  0  0  0
   42.7079   30.3332   11.5515 H   0  0  0  0  0  0  0  0  0  0  0  0
   42.9143   28.6154   11.4088 H   0  0  0  0  0  0  0  0  0  0  0  0
   40.7420   28.4247   10.3140 H   0  0  0  0  0  0  0  0  0  0  0  0
   40.5841   30.2198   10.4557 H   0  0  0  0  0  0  0  0  0  0  0  0
   41.7029   29.1847   13.3127 H   0  0  0  0  0  0  0  0  0  0  0  0
  1 17  1  1  0  0  0
  1  6  1  0  0  0  0
  1 33  1  0  0  0  0
  2 44  1  0  0  0  0
  3 10  2  0  0  0  0
  3 45  1  0  0  0  0
  4 21  2  0  0  0  0
  4 26  1  0  0  0  0
  4 46  1  0  0  0  0
  5 34  2  0  0  0  0
  5 47  1  0  0  0  0
  6  7  1  0  0  0  0
  7  8  1  0  0  0  0
  7  2  2  0  0  0  0
  8 12  1  0  0  0  0
  9  8  2  0  0  0  0
 10  6  1  0  0  0  0
 10  9  1  0  0  0  0
 11  9  1  0  0  0  0
 11 48  1  0  0  0  0
 11 49  1  0  0  0  0
 11 50  1  0  0  0  0
 12 13  1  0  0  0  0
 12 51  1  0  0  0  0
 12 52  1  0  0  0  0
 13 14  1  0  0  0  0
 13 53  1  0  0  0  0
 13 54  1  0  0  0  0
 14 16  2  0  0  0  0
 14 15  1  0  0  0  0
 15 55  1  0  0  0  0
 17 18  2  0  0  0  0
 18  3  1  0  0  0  0
 19 18  1  0  0  0  0
 20 21  1  0  0  0  0
 20 19  2  0  0  0  0
 21 17  1  0  0  0  0
 22 19  1  0  0  0  0
 22 56  1  0  0  0  0
 22 57  1  0  0  0  0
 22 58  1  0  0  0  0
 23 20  1  0  0  0  0
 23 59  1  0  0  0  0
 23 60  1  0  0  0  0
 24 23  1  0  0  0  0
 24 61  1  0  0  0  0
 24 62  1  0  0  0  0
 24 63  1  0  0  0  0
 25 29  1  0  0  0  0
 25  1  1  0  0  0  0
 26 25  1  0  0  0  0
 27 26  2  0  0  0  0
 27 28  1  0  0  0  0
 28 31  1  0  0  0  0
 28 29  2  0  0  0  0
 29  5  1  0  0  0  0
 30 27  1  0  0  0  0
 30 64  1  0  0  0  0
 30 65  1  0  0  0  0
 30 66  1  0  0  0  0
 31 67  1  0  0  0  0
 31 68  1  0  0  0  0
 32 31  1  0  0  0  0
 32 69  1  0  0  0  0
 32 70  1  0  0  0  0
 32 71  1  0  0  0  0
 33 34  1  0  0  0  0
 33 37  2  0  0  0  0
 34 35  1  0  0  0  0
 35 38  1  0  0  0  0
 35 36  2  0  0  0  0
 36 39  1  0  0  0  0
 37  2  1  0  0  0  0
 37 36  1  0  0  0  0
 38 72  1  0  0  0  0
 38 73  1  0  0  0  0
 38 74  1  0  0  0  0
 39 75  1  0  0  0  0
 39 76  1  0  0  0  0
 40 39  1  0  0  0  0
 40 41  1  0  0  0  0
 40 77  1  0  0  0  0
 40 78  1  0  0  0  0
 41 42  1  0  0  0  0
 42 79  1  0  0  0  0
 43 41  2  0  0  0  0
M  END
