hec
  Mrv15b2310292106293D          

 79 86  0  0  0  0            999 V2000
   -0.6913    0.9031   -0.7296 Fe  0  0  2  0  0  0  0  0  0  0  0  0
   -0.9082   -2.2511   -1.2432 C   0  0  0  0  0  0  0  0  0  0  0  0
   -1.9627    1.5701   -3.6542 C   0  0  0  0  0  0  0  0  0  0  0  0
   -1.4346    3.9526    0.2732 C   0  0  0  0  0  0  0  0  0  0  0  0
    1.3982    0.4037    1.7222 C   0  0  0  0  0  0  0  0  0  0  0  0
   -1.1027   -0.1237   -2.3090 N   0  0  0  0  0  0  0  0  0  0  0  0
   -1.0394   -1.4618   -2.3673 C   0  0  0  0  0  0  0  0  0  0  0  0
   -1.0482   -1.8128   -3.7224 C   0  0  0  0  0  0  0  0  0  0  0  0
   -1.2509   -0.6212   -4.4320 C   0  0  0  0  0  0  0  0  0  0  0  0
   -1.4272    0.3496   -3.4901 C   0  0  0  0  0  0  0  0  0  0  0  0
   -1.2696   -0.4534   -5.8823 C   0  0  0  0  0  0  0  0  0  0  0  0
   -0.8801   -3.1502   -4.2834 C   0  0  2  0  0  0  0  0  0  0  0  0
    0.6050   -3.4119   -4.5419 C   0  0  1  0  0  0  0  0  0  0  0  0
    0.7731   -4.7493   -5.1029 C   0  0  0  0  0  0  0  0  0  0  0  0
    0.3683   -5.8305   -4.4032 O   0  0  0  0  0  0  0  0  0  0  0  0
    1.2917   -4.8932   -6.2310 O   0  0  0  0  0  0  0  0  0  0  0  0
   -1.6539    2.3955   -1.4675 N   0  0  0  0  0  4  0  0  0  0  0  0
   -2.1682    2.4627   -2.6441 C   0  0  0  0  0  0  0  0  0  0  0  0
   -2.9770    3.5167   -2.7351 C   0  0  0  0  0  0  0  0  0  0  0  0
   -2.8829    4.1647   -1.5770 C   0  0  0  0  0  0  0  0  0  0  0  0
   -1.9886    3.4895   -0.8612 C   0  0  0  0  0  0  0  0  0  0  0  0
   -3.7867    3.8802   -3.8563 C   0  0  0  0  0  0  0  0  0  0  0  0
   -3.5947    5.3411   -1.1842 C   0  0  2  0  0  0  0  0  0  0  0  0
   -4.9032    4.9409   -0.4998 C   0  0  0  0  0  0  0  0  0  0  0  0
   -0.0750    2.0237    0.7083 N   0  0  0  0  0  0  0  0  0  0  0  0
   -0.4439    3.2846    0.9702 C   0  0  0  0  0  0  0  0  0  0  0  0
    0.3341    3.7907    2.0070 C   0  0  0  0  0  0  0  0  0  0  0  0
    1.1822    2.7591    2.4032 C   0  0  0  0  0  0  0  0  0  0  0  0
    0.8657    1.6688    1.5969 C   0  0  0  0  0  0  0  0  0  0  0  0
    0.2735    5.1370    2.5686 C   0  0  0  0  0  0  0  0  0  0  0  0
    2.1972    2.8105    3.4514 C   0  0  2  0  0  0  0  0  0  0  0  0
    1.5737    2.3963    4.7858 C   0  0  0  0  0  0  0  0  0  0  0  0
    0.0691   -0.6462    0.1198 N   0  0  0  0  0  4  0  0  0  0  0  0
    0.9872   -0.6619    1.0130 C   0  0  0  0  0  0  0  0  0  0  0  0
    1.4218   -1.8961    1.2386 C   0  0  0  0  0  0  0  0  0  0  0  0
    0.6546   -2.6861    0.4939 C   0  0  0  0  0  0  0  0  0  0  0  0
   -0.1269   -1.8712   -0.2257 C   0  0  0  0  0  0  0  0  0  0  0  0
    2.4909   -2.2923    2.1017 C   0  0  0  0  0  0  0  0  0  0  0  0
    0.6625   -4.1159    0.4669 C   0  0  2  0  0  0  0  0  0  0  0  0
    1.6564   -4.6005   -0.5905 C   0  0  1  0  0  0  0  0  0  0  0  0
    1.6644   -6.0602   -0.6181 C   0  0  0  0  0  0  0  0  0  0  0  0
    2.0022   -6.7544    0.4894 O   0  0  0  0  0  0  0  0  0  0  0  0
    1.3586   -6.6672   -1.6671 O   0  0  0  0  0  0  0  0  0  0  0  0
   -1.3985   -3.1095   -1.1888 H   0  0  0  0  0  0  0  0  0  0  0  0
   -2.2258    1.8398   -4.5697 H   0  0  0  0  0  0  0  0  0  0  0  0
   -1.7535    4.8195    0.6292 H   0  0  0  0  0  0  0  0  0  0  0  0
    2.1297    0.2713    2.3760 H   0  0  0  0  0  0  0  0  0  0  0  0
   -2.2391   -0.0619   -6.1903 H   0  0  0  0  0  0  0  0  0  0  0  0
   -1.0979   -1.4171   -6.3617 H   0  0  0  0  0  0  0  0  0  0  0  0
   -0.4857    0.2441   -6.1774 H   0  0  0  0  0  0  0  0  0  0  0  0
   -1.4304   -3.2225   -5.2215 H   0  0  0  0  0  0  0  0  0  0  0  0
   -1.2624   -3.8899   -3.5800 H   0  0  0  0  0  0  0  0  0  0  0  0
    0.9873   -2.6722   -5.2453 H   0  0  0  0  0  0  0  0  0  0  0  0
    1.1553   -3.3396   -3.6038 H   0  0  0  0  0  0  0  0  0  0  0  0
    0.4811   -6.7282   -4.7797 H   0  0  0  0  0  0  0  0  0  0  0  0
   -4.4905    3.0764   -4.0720 H   0  0  0  0  0  0  0  0  0  0  0  0
   -4.3367    4.7928   -3.6266 H   0  0  0  0  0  0  0  0  0  0  0  0
   -3.1501    4.0486   -4.7249 H   0  0  0  0  0  0  0  0  0  0  0  0
   -3.8151    5.9436   -2.0654 H   0  0  0  0  0  0  0  0  0  0  0  0
   -2.9846    5.9205   -0.4913 H   0  0  0  0  0  0  0  0  0  0  0  0
   -5.4457    5.8376   -0.2004 H   0  0  0  0  0  0  0  0  0  0  0  0
   -5.5133    4.3615   -1.1928 H   0  0  0  0  0  0  0  0  0  0  0  0
   -4.6828    4.3384    0.3814 H   0  0  0  0  0  0  0  0  0  0  0  0
   -0.7242    5.3196    2.9678 H   0  0  0  0  0  0  0  0  0  0  0  0
    0.4917    5.8663    1.7885 H   0  0  0  0  0  0  0  0  0  0  0  0
    1.0077    5.2303    3.3689 H   0  0  0  0  0  0  0  0  0  0  0  0
    2.5857    3.8258    3.5314 H   0  0  0  0  0  0  0  0  0  0  0  0
    3.0107    2.1288    3.2032 H   0  0  0  0  0  0  0  0  0  0  0  0
    2.3315    2.4348    5.5683 H   0  0  0  0  0  0  0  0  0  0  0  0
    0.7603    3.0781    5.0339 H   0  0  0  0  0  0  0  0  0  0  0  0
    1.1853    1.3811    4.7057 H   0  0  0  0  0  0  0  0  0  0  0  0
    2.2688   -1.9801    3.1222 H   0  0  0  0  0  0  0  0  0  0  0  0
    2.6014   -3.3762    2.0692 H   0  0  0  0  0  0  0  0  0  0  0  0
    3.4175   -1.8225    1.7716 H   0  0  0  0  0  0  0  0  0  0  0  0
   -0.3352   -4.4801    0.2218 H   0  0  0  0  0  0  0  0  0  0  0  0
    0.9581   -4.4961    1.4447 H   0  0  0  0  0  0  0  0  0  0  0  0
    1.3608   -4.2203   -1.5683 H   0  0  0  0  0  0  0  0  0  0  0  0
    2.6541   -4.2363   -0.3454 H   0  0  0  0  0  0  0  0  0  0  0  0
    2.0075   -7.7342    0.4709 H   0  0  0  0  0  0  0  0  0  0  0  0
  1 17  1  0  0  0  0
  1  6  1  0  0  0  0
  1 33  1  0  0  0  0
  2 44  1  0  0  0  0
  3 10  2  0  0  0  0
  3 45  1  0  0  0  0
  4 21  2  0  0  0  0
  4 26  1  0  0  0  0
  4 46  1  0  0  0  0
  5 34  2  0  0  0  0
  5 47  1  0  0  0  0
  6  7  1  0  0  0  0
  7  8  1  0  0  0  0
  7  2  2  0  0  0  0
  8 12  1  0  0  0  0
  9  8  2  0  0  0  0
 10  6  1  0  0  0  0
 10  9  1  0  0  0  0
 11  9  1  0  0  0  0
 11 48  1  0  0  0  0
 11 49  1  0  0  0  0
 11 50  1  0  0  0  0
 12 13  1  0  0  0  0
 12 51  1  0  0  0  0
 12 52  1  0  0  0  0
 13 14  1  0  0  0  0
 13 53  1  0  0  0  0
 13 54  1  0  0  0  0
 14 16  2  0  0  0  0
 14 15  1  0  0  0  0
 15 55  1  0  0  0  0
 17 18  2  0  0  0  0
 18  3  1  0  0  0  0
 19 18  1  0  0  0  0
 20 21  1  0  0  0  0
 20 19  2  0  0  0  0
 21 17  1  0  0  0  0
 22 19  1  0  0  0  0
 22 56  1  0  0  0  0
 22 57  1  0  0  0  0
 22 58  1  0  0  0  0
 23 20  1  0  0  0  0
 23 59  1  0  0  0  0
 23 60  1  0  0  0  0
 24 23  1  0  0  0  0
 24 61  1  0  0  0  0
 24 62  1  0  0  0  0
 24 63  1  0  0  0  0
 25 29  1  0  0  0  0
 25  1  1  0  0  0  0
 26 25  1  0  0  0  0
 27 26  2  0  0  0  0
 27 28  1  0  0  0  0
 28 31  1  0  0  0  0
 28 29  2  0  0  0  0
 29  5  1  0  0  0  0
 30 27  1  0  0  0  0
 30 64  1  0  0  0  0
 30 65  1  0  0  0  0
 30 66  1  0  0  0  0
 31 67  1  0  0  0  0
 31 68  1  0  0  0  0
 32 31  1  0  0  0  0
 32 69  1  0  0  0  0
 32 70  1  0  0  0  0
 32 71  1  0  0  0  0
 33 34  1  0  0  0  0
 33 37  2  0  0  0  0
 34 35  1  0  0  0  0
 35 38  1  0  0  0  0
 35 36  2  0  0  0  0
 36 39  1  0  0  0  0
 37  2  1  0  0  0  0
 37 36  1  0  0  0  0
 38 72  1  0  0  0  0
 38 73  1  0  0  0  0
 38 74  1  0  0  0  0
 39 75  1  0  0  0  0
 39 76  1  0  0  0  0
 40 39  1  0  0  0  0
 40 41  1  0  0  0  0
 40 77  1  0  0  0  0
 40 78  1  0  0  0  0
 41 42  1  0  0  0  0
 42 79  1  0  0  0  0
 43 41  2  0  0  0  0
M  END
