hec
  MJ211400                      

 79 86  0  0  0  0  0  0  0  0999 V2000
   24.0768   15.3913    0.0000 Fe  0  0  0  0  0  0  0  0  0  0  0  0
   22.4876   13.9968    0.0000 C   0  0  0  0  0  0  0  0  0  0  0  0
   22.6824   16.9807    0.0000 C   0  0  0  0  0  0  0  0  0  0  0  0
   25.6663   16.7857    0.0000 C   0  0  0  0  0  0  0  0  0  0  0  0
   25.4714   13.8020    0.0000 C   0  0  0  0  0  0  0  0  0  0  0  0
   22.6023   15.3456    0.0000 N   0  0  0  0  0  0  0  0  0  0  0  0
   22.0749   14.7112    0.0000 C   0  0  0  0  0  0  0  0  0  0  0  0
   21.3085   15.0167    0.0000 C   0  0  0  0  0  0  0  0  0  0  0  0
   21.3623   15.8399    0.0000 C   0  0  0  0  0  0  0  0  0  0  0  0
   22.1619   16.0432    0.0000 C   0  0  0  0  0  0  0  0  0  0  0  0
   20.7279   16.3673    0.0000 C   0  0  0  0  0  0  0  0  0  0  0  0
   20.6109   14.5763    0.0000 C   0  0  0  0  0  0  0  0  0  0  0  0
   20.6435   13.7519    0.0000 C   0  0  0  0  0  0  0  0  0  0  0  0
   19.9459   13.3115    0.0000 C   0  0  0  0  0  0  0  0  0  0  0  0
   19.9785   12.4872    0.0000 O   0  0  0  0  0  0  0  0  0  0  0  0
   19.2156   13.6955    0.0000 O   0  0  0  0  0  0  0  0  0  0  0  0
   24.0311   16.8659    0.0000 N   0  0  0  0  0  4  0  0  0  0  0  0
   23.3968   17.3933    0.0000 C   0  0  0  0  0  0  0  0  0  0  0  0
   23.7023   18.1597    0.0000 C   0  0  0  0  0  0  0  0  0  0  0  0
   24.5255   18.1058    0.0000 C   0  0  0  0  0  0  0  0  0  0  0  0
   24.7288   17.3064    0.0000 C   0  0  0  0  0  0  0  0  0  0  0  0
   23.2619   18.8573    0.0000 C   0  0  0  0  0  0  0  0  0  0  0  0
   25.0529   18.7403    0.0000 C   0  0  0  0  0  0  0  0  0  0  0  0
   24.7672   19.5143    0.0000 C   0  0  0  0  0  0  0  0  0  0  0  0
   25.5516   15.4369    0.0000 N   0  0  0  0  0  0  0  0  0  0  0  0
   26.0789   16.0715    0.0000 C   0  0  0  0  0  0  0  0  0  0  0  0
   26.8453   15.7659    0.0000 C   0  0  0  0  0  0  0  0  0  0  0  0
   26.7915   14.9427    0.0000 C   0  0  0  0  0  0  0  0  0  0  0  0
   25.9920   14.7394    0.0000 C   0  0  0  0  0  0  0  0  0  0  0  0
   27.5429   16.2063    0.0000 C   0  0  0  0  0  0  0  0  0  0  0  0
   27.4260   14.4153    0.0000 C   0  0  0  0  0  0  0  0  0  0  0  0
   27.2864   13.6022    0.0000 C   0  0  0  0  0  0  0  0  0  0  0  0
   24.1225   13.9167    0.0000 N   0  0  0  0  0  4  0  0  0  0  0  0
   24.7571   13.3893    0.0000 C   0  0  0  0  0  0  0  0  0  0  0  0
   24.4515   12.6228    0.0000 C   0  0  0  0  0  0  0  0  0  0  0  0
   23.6283   12.6767    0.0000 C   0  0  0  0  0  0  0  0  0  0  0  0
   23.4250   13.4763    0.0000 C   0  0  0  0  0  0  0  0  0  0  0  0
   24.8919   11.9253    0.0000 C   0  0  0  0  0  0  0  0  0  0  0  0
   23.1009   12.0422    0.0000 C   0  0  0  0  0  0  0  0  0  0  0  0
   22.2878   12.1818    0.0000 C   0  0  0  0  0  0  0  0  0  0  0  0
   21.7604   11.5473    0.0000 C   0  0  0  0  0  0  0  0  0  0  0  0
   22.0462   10.7734    0.0000 O   0  0  0  0  0  0  0  0  0  0  0  0
   20.9472   11.6869    0.0000 O   0  0  0  0  0  0  0  0  0  0  0  0
   21.9091   13.4085    0.0000 H   0  0  0  0  0  0  0  0  0  0  0  0
   22.0941   17.5590    0.0000 H   0  0  0  0  0  0  0  0  0  0  0  0
   26.2446   17.3741    0.0000 H   0  0  0  0  0  0  0  0  0  0  0  0
   26.0597   13.2236    0.0000 H   0  0  0  0  0  0  0  0  0  0  0  0
   21.2551   17.0017    0.0000 H   0  0  0  0  0  0  0  0  0  0  0  0
   20.0934   16.8947    0.0000 H   0  0  0  0  0  0  0  0  0  0  0  0
   20.2005   15.7329    0.0000 H   0  0  0  0  0  0  0  0  0  0  0  0
   20.1307   15.2471    0.0000 H   0  0  0  0  0  0  0  0  0  0  0  0
   19.7861   14.5917    0.0000 H   0  0  0  0  0  0  0  0  0  0  0  0
   21.1237   13.0811    0.0000 H   0  0  0  0  0  0  0  0  0  0  0  0
   21.4684   13.7365    0.0000 H   0  0  0  0  0  0  0  0  0  0  0  0
   19.2809   12.0467    0.0000 H   0  0  0  0  0  0  0  0  0  0  0  0
   23.9594   19.2977    0.0000 H   0  0  0  0  0  0  0  0  0  0  0  0
   22.8215   19.5549    0.0000 H   0  0  0  0  0  0  0  0  0  0  0  0
   22.5643   18.4168    0.0000 H   0  0  0  0  0  0  0  0  0  0  0  0
   25.7169   18.2506    0.0000 H   0  0  0  0  0  0  0  0  0  0  0  0
   25.8420   18.9806    0.0000 H   0  0  0  0  0  0  0  0  0  0  0  0
   25.5905   19.4632    0.0000 H   0  0  0  0  0  0  0  0  0  0  0  0
   25.1463   20.2470    0.0000 H   0  0  0  0  0  0  0  0  0  0  0  0
   24.2499   20.1570    0.0000 H   0  0  0  0  0  0  0  0  0  0  0  0
   27.9833   15.5087    0.0000 H   0  0  0  0  0  0  0  0  0  0  0  0
   28.2405   16.6467    0.0000 H   0  0  0  0  0  0  0  0  0  0  0  0
   27.1025   16.9040    0.0000 H   0  0  0  0  0  0  0  0  0  0  0  0
   28.2458   14.3233    0.0000 H   0  0  0  0  0  0  0  0  0  0  0  0
   27.9893   15.0180    0.0000 H   0  0  0  0  0  0  0  0  0  0  0  0
   26.4733   13.7417    0.0000 H   0  0  0  0  0  0  0  0  0  0  0  0
   27.1469   12.7891    0.0000 H   0  0  0  0  0  0  0  0  0  0  0  0
   28.0996   13.4627    0.0000 H   0  0  0  0  0  0  0  0  0  0  0  0
   24.1942   11.4849    0.0000 H   0  0  0  0  0  0  0  0  0  0  0  0
   25.3324   11.2277    0.0000 H   0  0  0  0  0  0  0  0  0  0  0  0
   25.5896   12.3657    0.0000 H   0  0  0  0  0  0  0  0  0  0  0  0
   23.0089   11.2224    0.0000 H   0  0  0  0  0  0  0  0  0  0  0  0
   23.7036   11.4789    0.0000 H   0  0  0  0  0  0  0  0  0  0  0  0
   22.3798   13.0016    0.0000 H   0  0  0  0  0  0  0  0  0  0  0  0
   21.6850   12.7451    0.0000 H   0  0  0  0  0  0  0  0  0  0  0  0
   21.5188   10.1390    0.0000 H   0  0  0  0  0  0  0  0  0  0  0  0
  1 17  1  0  0  0  0
  1  6  1  0  0  0  0
  1 33  1  0  0  0  0
  2 44  1  0  0  0  0
  3 10  2  0  0  0  0
  3 45  1  0  0  0  0
  4 21  2  0  0  0  0
  4 26  1  0  0  0  0
  4 46  1  0  0  0  0
  5 34  2  0  0  0  0
  5 47  1  0  0  0  0
  6  7  1  0  0  0  0
  7  8  1  0  0  0  0
  7  2  2  0  0  0  0
  8 12  1  0  0  0  0
  9  8  2  0  0  0  0
 10  6  1  0  0  0  0
 10  9  1  0  0  0  0
 11  9  1  0  0  0  0
 11 48  1  0  0  0  0
 11 49  1  0  0  0  0
 11 50  1  0  0  0  0
 12 13  1  0  0  0  0
 12 51  1  0  0  0  0
 12 52  1  0  0  0  0
 13 14  1  0  0  0  0
 13 53  1  0  0  0  0
 13 54  1  0  0  0  0
 14 16  2  0  0  0  0
 14 15  1  0  0  0  0
 15 55  1  0  0  0  0
 17 18  2  0  0  0  0
 18  3  1  0  0  0  0
 19 18  1  0  0  0  0
 20 21  1  0  0  0  0
 20 19  2  0  0  0  0
 21 17  1  0  0  0  0
 22 19  1  0  0  0  0
 22 56  1  0  0  0  0
 22 57  1  0  0  0  0
 22 58  1  0  0  0  0
 23 20  1  0  0  0  0
 23 59  1  0  0  0  0
 23 60  1  0  0  0  0
 24 23  1  0  0  0  0
 24 61  1  0  0  0  0
 24 62  1  0  0  0  0
 24 63  1  0  0  0  0
 25 29  1  0  0  0  0
 25  1  1  0  0  0  0
 26 25  1  0  0  0  0
 27 26  2  0  0  0  0
 27 28  1  0  0  0  0
 28 31  1  0  0  0  0
 28 29  2  0  0  0  0
 29  5  1  0  0  0  0
 30 27  1  0  0  0  0
 30 64  1  0  0  0  0
 30 65  1  0  0  0  0
 30 66  1  0  0  0  0
 31 67  1  0  0  0  0
 31 68  1  0  0  0  0
 32 31  1  0  0  0  0
 32 69  1  0  0  0  0
 32 70  1  0  0  0  0
 32 71  1  0  0  0  0
 33 34  1  0  0  0  0
 33 37  2  0  0  0  0
 34 35  1  0  0  0  0
 35 38  1  0  0  0  0
 35 36  2  0  0  0  0
 36 39  1  0  0  0  0
 37  2  1  0  0  0  0
 37 36  1  0  0  0  0
 38 72  1  0  0  0  0
 38 73  1  0  0  0  0
 38 74  1  0  0  0  0
 39 75  1  0  0  0  0
 39 76  1  0  0  0  0
 40 39  1  0  0  0  0
 40 41  1  0  0  0  0
 40 77  1  0  0  0  0
 40 78  1  0  0  0  0
 41 42  1  0  0  0  0
 42 79  1  0  0  0  0
 43 41  2  0  0  0  0
M  END
