@<TRIPOS>MOLECULE
hec
 79 86 0 0 0
SMALL
GASTEIGER

@<TRIPOS>ATOM
      1 FE         -0.6913    0.9031   -0.7296 Fe      1  UNL1        0.0000
      2 C          -0.9082   -2.2511   -1.2432 C.2     1  UNL1        0.0000
      3 C          -1.9627    1.5701   -3.6542 C.2     1  UNL1        0.0000
      4 C          -1.4346    3.9526    0.2732 C.2     1  UNL1        0.0000
      5 C           1.3982    0.4037    1.7222 C.2     1  UNL1        0.0000
      6 N          -1.1027   -0.1237   -2.3090 N.ar    1  UNL1        0.0000
      7 C          -1.0394   -1.4618   -2.3673 C.ar    1  UNL1        0.0000
      8 C          -1.0482   -1.8128   -3.7224 C.ar    1  UNL1        0.0000
      9 C          -1.2509   -0.6212   -4.4320 C.ar    1  UNL1        0.0000
     10 C          -1.4272    0.3496   -3.4901 C.ar    1  UNL1        0.0000
     11 C          -1.2696   -0.4534   -5.8823 C.3     1  UNL1        0.0000
     12 C          -0.8801   -3.1502   -4.2834 C.3     1  UNL1        0.0000
     13 C           0.6050   -3.4119   -4.5419 C.3     1  UNL1        0.0000
     14 C           0.7731   -4.7493   -5.1029 C.2     1  UNL1        0.0000
     15 O           0.3683   -5.8305   -4.4032 O.3     1  UNL1        0.0000
     16 O           1.2917   -4.8932   -6.2310 O.2     1  UNL1        0.0000
     17 N          -1.6539    2.3955   -1.4675 N.2     1  UNL1        0.0000
     18 C          -2.1682    2.4627   -2.6441 C.2     1  UNL1        0.0000
     19 C          -2.9770    3.5167   -2.7351 C.2     1  UNL1        0.0000
     20 C          -2.8829    4.1647   -1.5770 C.2     1  UNL1        0.0000
     21 C          -1.9886    3.4895   -0.8612 C.2     1  UNL1        0.0000
     22 C          -3.7867    3.8802   -3.8563 C.3     1  UNL1        0.0000
     23 C          -3.5947    5.3411   -1.1842 C.3     1  UNL1        0.0000
     24 C          -4.9032    4.9409   -0.4998 C.3     1  UNL1        0.0000
     25 N          -0.0750    2.0237    0.7083 N.ar    1  UNL1        0.0000
     26 C          -0.4439    3.2846    0.9702 C.ar    1  UNL1        0.0000
     27 C           0.3341    3.7907    2.0070 C.ar    1  UNL1        0.0000
     28 C           1.1822    2.7591    2.4032 C.ar    1  UNL1        0.0000
     29 C           0.8657    1.6688    1.5969 C.ar    1  UNL1        0.0000
     30 C           0.2735    5.1370    2.5686 C.3     1  UNL1        0.0000
     31 C           2.1972    2.8105    3.4514 C.3     1  UNL1        0.0000
     32 C           1.5737    2.3963    4.7858 C.3     1  UNL1        0.0000
     33 N           0.0691   -0.6462    0.1198 N.2     1  UNL1        0.0000
     34 C           0.9872   -0.6619    1.0130 C.2     1  UNL1        0.0000
     35 C           1.4218   -1.8961    1.2386 C.2     1  UNL1        0.0000
     36 C           0.6546   -2.6861    0.4939 C.2     1  UNL1        0.0000
     37 C          -0.1269   -1.8712   -0.2257 C.2     1  UNL1        0.0000
     38 C           2.4909   -2.2923    2.1017 C.3     1  UNL1        0.0000
     39 C           0.6625   -4.1159    0.4669 C.3     1  UNL1        0.0000
     40 C           1.6564   -4.6005   -0.5905 C.3     1  UNL1        0.0000
     41 C           1.6644   -6.0602   -0.6181 C.2     1  UNL1        0.0000
     42 O           2.0022   -6.7544    0.4894 O.3     1  UNL1        0.0000
     43 O           1.3586   -6.6672   -1.6671 O.2     1  UNL1        0.0000
     44 H          -1.3985   -3.1095   -1.1888 H       1  UNL1        0.0000
     45 H          -2.2258    1.8398   -4.5697 H       1  UNL1        0.0000
     46 H          -1.7535    4.8195    0.6292 H       1  UNL1        0.0000
     47 H           2.1297    0.2713    2.3760 H       1  UNL1        0.0000
     48 H          -2.2391   -0.0619   -6.1903 H       1  UNL1        0.0000
     49 H          -1.0979   -1.4171   -6.3617 H       1  UNL1        0.0000
     50 H          -0.4857    0.2441   -6.1774 H       1  UNL1        0.0000
     51 H          -1.4304   -3.2225   -5.2215 H       1  UNL1        0.0000
     52 H          -1.2624   -3.8899   -3.5800 H       1  UNL1        0.0000
     53 H           0.9873   -2.6722   -5.2453 H       1  UNL1        0.0000
     54 H           1.1553   -3.3396   -3.6038 H       1  UNL1        0.0000
     55 H           0.4811   -6.7282   -4.7797 H       1  UNL1        0.0000
     56 H          -4.4905    3.0764   -4.0720 H       1  UNL1        0.0000
     57 H          -4.3367    4.7928   -3.6266 H       1  UNL1        0.0000
     58 H          -3.1501    4.0486   -4.7249 H       1  UNL1        0.0000
     59 H          -3.8151    5.9436   -2.0654 H       1  UNL1        0.0000
     60 H          -2.9846    5.9205   -0.4913 H       1  UNL1        0.0000
     61 H          -5.4457    5.8376   -0.2004 H       1  UNL1        0.0000
     62 H          -5.5133    4.3615   -1.1928 H       1  UNL1        0.0000
     63 H          -4.6828    4.3384    0.3814 H       1  UNL1        0.0000
     64 H          -0.7242    5.3196    2.9678 H       1  UNL1        0.0000
     65 H           0.4917    5.8663    1.7885 H       1  UNL1        0.0000
     66 H           1.0077    5.2303    3.3689 H       1  UNL1        0.0000
     67 H           2.5857    3.8258    3.5314 H       1  UNL1        0.0000
     68 H           3.0107    2.1288    3.2032 H       1  UNL1        0.0000
     69 H           2.3315    2.4348    5.5683 H       1  UNL1        0.0000
     70 H           0.7603    3.0781    5.0339 H       1  UNL1        0.0000
     71 H           1.1853    1.3811    4.7057 H       1  UNL1        0.0000
     72 H           2.2688   -1.9801    3.1222 H       1  UNL1        0.0000
     73 H           2.6014   -3.3762    2.0692 H       1  UNL1        0.0000
     74 H           3.4175   -1.8225    1.7716 H       1  UNL1        0.0000
     75 H          -0.3352   -4.4801    0.2218 H       1  UNL1        0.0000
     76 H           0.9581   -4.4961    1.4447 H       1  UNL1        0.0000
     77 H           1.3608   -4.2203   -1.5683 H       1  UNL1        0.0000
     78 H           2.6541   -4.2363   -0.3454 H       1  UNL1        0.0000
     79 H           2.0075   -7.7342    0.4709 H       1  UNL1        0.0000
@<TRIPOS>BOND
     1     1    17    1
     2     1     6    1
     3     1    33    1
     4     2    44    1
     5     3    10    2
     6     3    45    1
     7     4    21    2
     8     4    26    1
     9     4    46    1
    10     5    34    2
    11     5    47    1
    12     6     7   ar
    13     7     8   ar
    14     7     2    2
    15     8    12    1
    16     9     8   ar
    17    10     6   ar
    18    10     9   ar
    19    11     9    1
    20    11    48    1
    21    11    49    1
    22    11    50    1
    23    12    13    1
    24    12    51    1
    25    12    52    1
    26    13    14    1
    27    13    53    1
    28    13    54    1
    29    14    16    2
    30    14    15    1
    31    15    55    1
    32    17    18    2
    33    18     3    1
    34    19    18    1
    35    20    21    1
    36    20    19    2
    37    21    17    1
    38    22    19    1
    39    22    56    1
    40    22    57    1
    41    22    58    1
    42    23    20    1
    43    23    59    1
    44    23    60    1
    45    24    23    1
    46    24    61    1
    47    24    62    1
    48    24    63    1
    49    25    29   ar
    50    25     1    1
    51    26    25   ar
    52    27    26   ar
    53    27    28   ar
    54    28    31    1
    55    28    29   ar
    56    29     5    1
    57    30    27    1
    58    30    64    1
    59    30    65    1
    60    30    66    1
    61    31    67    1
    62    31    68    1
    63    32    31    1
    64    32    69    1
    65    32    70    1
    66    32    71    1
    67    33    34    1
    68    33    37    2
    69    34    35    1
    70    35    38    1
    71    35    36    2
    72    36    39    1
    73    37     2    1
    74    37    36    1
    75    38    72    1
    76    38    73    1
    77    38    74    1
    78    39    75    1
    79    39    76    1
    80    40    39    1
    81    40    41    1
    82    40    77    1
    83    40    78    1
    84    41    42    1
    85    42    79    1
    86    43    41    2
