HEC
  -OEChem-10222119243D

 77 84  0     0  0  0  0  0  0999 V2000
   15.5220   27.9350   77.1260 Fe  0  0  0  0  0  0  0  0  0  0  0  0
   15.6070   30.4700   74.8110 C   0  0  0  0  0  0  0  0  0  0  0  0
   18.8900   27.5340   76.7920 C   0  0  0  0  0  0  0  0  0  0  0  0
   15.4740   25.5490   79.6100 C   0  0  0  0  0  0  0  0  0  0  0  0
   12.1370   28.0610   77.1810 C   0  0  0  0  0  0  0  0  0  0  0  0
   16.9510   28.8240   76.0330 N   0  0  0  0  0  0  0  0  0  0  0  0
   16.8070   29.8770   75.1500 C   0  0  0  0  0  0  0  0  0  0  0  0
   18.1050   30.2530   74.6300 C   0  0  0  0  0  0  0  0  0  0  0  0
   19.0100   29.4350   75.1770 C   0  0  0  0  0  0  0  0  0  0  0  0
   18.3030   28.5220   76.0410 C   0  0  0  0  0  0  0  0  0  0  0  0
   20.5410   29.3970   74.9590 C   0  0  0  0  0  0  0  0  0  0  0  0
   18.3140   31.3940   73.6130 C   0  0  0  0  0  0  0  0  0  0  0  0
   18.1180   30.9440   72.1500 C   0  0  0  0  0  0  0  0  0  0  0  0
   17.9360   32.0930   71.1840 C   0  0  0  0  0  0  0  0  0  0  0  0
   17.9840   31.7960   69.9600 O   0  0  0  0  0  0  0  0  0  0  0  0
   17.7460   33.2190   71.7130 O   0  0  0  0  0  0  0  0  0  0  0  0
   16.8930   26.7710   78.0050 N   0  0  0  0  0  0  0  0  0  0  0  0
   18.2470   26.7430   77.7140 C   0  0  0  0  0  0  0  0  0  0  0  0
   18.8870   25.7780   78.5600 C   0  0  0  0  0  0  0  0  0  0  0  0
   17.9360   25.2540   79.3450 C   0  0  0  0  0  0  0  0  0  0  0  0
   16.6820   25.8640   79.0160 C   0  0  0  0  0  0  0  0  0  0  0  0
   20.4020   25.4700   78.5180 C   0  0  0  0  0  0  0  0  0  0  0  0
   18.1760   24.1500   80.4300 C   0  0  0  0  0  0  0  0  0  0  0  0
   18.9180   24.6830   81.4990 C   0  0  0  0  0  0  0  0  0  0  0  0
   14.0940   27.0110   78.1840 N   0  0  0  0  0  0  0  0  0  0  0  0
   14.2710   26.0630   79.1760 C   0  0  0  0  0  0  0  0  0  0  0  0
   12.9750   25.6020   79.6600 C   0  0  0  0  0  0  0  0  0  0  0  0
   12.0610   26.3110   78.9890 C   0  0  0  0  0  0  0  0  0  0  0  0
   12.7180   27.1730   78.0560 C   0  0  0  0  0  0  0  0  0  0  0  0
   12.7790   24.5280   80.7470 C   0  0  0  0  0  0  0  0  0  0  0  0
   10.4940   26.1560   79.1240 C   0  0  0  0  0  0  0  0  0  0  0  0
    9.9700   26.7730   80.2230 C   0  0  0  0  0  0  0  0  0  0  0  0
   14.1470   29.0480   76.1720 N   0  0  0  0  0  0  0  0  0  0  0  0
   12.7760   28.9350   76.3260 C   0  0  0  0  0  0  0  0  0  0  0  0
   12.1410   29.8960   75.4540 C   0  0  0  0  0  0  0  0  0  0  0  0
   13.0890   30.5650   74.8040 C   0  0  0  0  0  0  0  0  0  0  0  0
   14.3750   30.0530   75.2640 C   0  0  0  0  0  0  0  0  0  0  0  0
   10.6000   30.0420   75.3740 C   0  0  0  0  0  0  0  0  0  0  0  0
   12.9560   31.6850   73.7550 C   0  0  0  0  0  0  0  0  0  0  0  0
   13.6300   33.0260   74.0200 C   0  0  0  0  0  0  0  0  0  0  0  0
   12.8120   33.9880   74.8340 C   0  0  0  0  0  0  0  0  0  0  0  0
   12.1790   33.4530   75.7890 O   0  0  0  0  0  0  0  0  0  0  0  0
   12.8260   35.2080   74.5180 O   0  0  0  0  0  0  0  0  0  0  0  0
   15.6340   31.3370   74.1300 H   0  0  0  0  0  0  0  0  0  0  0  0
   19.9690   27.3610   76.6420 H   0  0  0  0  0  0  0  0  0  0  0  0
   15.4690   24.8560   80.4680 H   0  0  0  0  0  0  0  0  0  0  0  0
   11.0340   28.0730   77.1620 H   0  0  0  0  0  0  0  0  0  0  0  0
   21.2950   28.7140   75.4150 H   0  0  0  0  0  0  0  0  0  0  0  0
   20.6810   29.3010   73.8570 H   0  0  0  0  0  0  0  0  0  0  0  0
   20.8980   30.4280   75.1840 H   0  0  0  0  0  0  0  0  0  0  0  0
   17.6590   32.2640   73.8520 H   0  0  0  0  0  0  0  0  0  0  0  0
   19.3110   31.8720   73.7510 H   0  0  0  0  0  0  0  0  0  0  0  0
   18.9550   30.2840   71.8240 H   0  0  0  0  0  0  0  0  0  0  0  0
   17.2710   30.2220   72.0690 H   0  0  0  0  0  0  0  0  0  0  0  0
   17.6310   33.9400   71.1060 H   0  0  0  0  0  0  0  0  0  0  0  0
   20.8990   24.7190   79.1750 H   0  0  0  0  0  0  0  0  0  0  0  0
   20.6540   25.2030   77.4650 H   0  0  0  0  0  0  0  0  0  0  0  0
   20.9380   26.4370   78.6580 H   0  0  0  0  0  0  0  0  0  0  0  0
   17.8520   23.0950   80.4400 H   0  0  0  0  0  0  0  0  0  0  0  0
   19.0880   23.8970   82.2710 H   0  0  0  0  0  0  0  0  0  0  0  0
   19.8720   25.1470   81.1560 H   0  0  0  0  0  0  0  0  0  0  0  0
   18.4390   25.5940   81.9270 H   0  0  0  0  0  0  0  0  0  0  0  0
   11.7880   24.1750   81.1170 H   0  0  0  0  0  0  0  0  0  0  0  0
   13.3400   23.6240   80.4130 H   0  0  0  0  0  0  0  0  0  0  0  0
   13.3570   24.8610   81.6390 H   0  0  0  0  0  0  0  0  0  0  0  0
    9.7820   25.6290   78.4660 H   0  0  0  0  0  0  0  0  0  0  0  0
    8.8640   26.6630   80.3180 H   0  0  0  0  0  0  0  0  0  0  0  0
   10.4800   26.4220   81.1500 H   0  0  0  0  0  0  0  0  0  0  0  0
   10.2600   27.8490   80.2440 H   0  0  0  0  0  0  0  0  0  0  0  0
   10.1090   30.7830   74.7010 H   0  0  0  0  0  0  0  0  0  0  0  0
   10.1750   29.0380   75.1390 H   0  0  0  0  0  0  0  0  0  0  0  0
   10.2210   30.2190   76.4070 H   0  0  0  0  0  0  0  0  0  0  0  0
   13.3020   31.2970   72.7680 H   0  0  0  0  0  0  0  0  0  0  0  0
   11.8730   31.8600   73.5510 H   0  0  0  0  0  0  0  0  0  0  0  0
   14.6280   32.8710   74.4910 H   0  0  0  0  0  0  0  0  0  0  0  0
   13.9420   33.4990   73.0590 H   0  0  0  0  0  0  0  0  0  0  0  0
   12.3080   35.8160   75.0320 H   0  0  0  0  0  0  0  0  0  0  0  0
  1  6  1  0  0  0  0
  1 17  1  0  0  0  0
  1 25  1  0  0  0  0
  1 33  1  0  0  0  0
  2  7  2  0  0  0  0
  2 37  1  0  0  0  0
  2 44  1  0  0  0  0
  3 10  2  0  0  0  0
  3 18  1  0  0  0  0
  3 45  1  0  0  0  0
  4 21  2  0  0  0  0
  4 26  1  0  0  0  0
  4 46  1  0  0  0  0
  5 29  2  0  0  0  0
  5 34  1  0  0  0  0
  5 47  1  0  0  0  0
  6  7  1  0  0  0  0
  6 10  1  0  0  0  0
  7  8  1  0  0  0  0
  8  9  2  0  0  0  0
  8 12  1  0  0  0  0
  9 10  1  0  0  0  0
  9 11  1  0  0  0  0
 11 48  1  0  0  0  0
 11 49  1  0  0  0  0
 11 50  1  0  0  0  0
 12 13  1  0  0  0  0
 12 51  1  0  0  0  0
 12 52  1  0  0  0  0
 13 14  1  0  0  0  0
 13 53  1  0  0  0  0
 13 54  1  0  0  0  0
 14 15  2  0  0  0  0
 14 16  1  0  0  0  0
 16 55  1  0  0  0  0
 17 18  1  0  0  0  0
 17 21  1  0  0  0  0
 18 19  2  0  0  0  0
 19 20  1  0  0  0  0
 19 22  1  0  0  0  0
 20 21  1  0  0  0  0
 20 23  2  3  0  0  0
 22 56  1  0  0  0  0
 22 57  1  0  0  0  0
 22 58  1  0  0  0  0
 23 24  1  0  0  0  0
 23 59  1  0  0  0  0
 24 60  1  0  0  0  0
 24 61  1  0  0  0  0
 24 62  1  0  0  0  0
 25 26  1  0  0  0  0
 25 29  1  0  0  0  0
 26 27  2  0  0  0  0
 27 28  1  0  0  0  0
 27 30  1  0  0  0  0
 28 29  1  0  0  0  0
 28 31  2  3  0  0  0
 30 63  1  0  0  0  0
 30 64  1  0  0  0  0
 30 65  1  0  0  0  0
 31 32  1  0  0  0  0
 31 66  1  0  0  0  0
 32 67  1  0  0  0  0
 32 68  1  0  0  0  0
 32 69  1  0  0  0  0
 33 34  1  0  0  0  0
 33 37  1  0  0  0  0
 34 35  2  0  0  0  0
 35 36  1  0  0  0  0
 35 38  1  0  0  0  0
 36 37  2  0  0  0  0
 36 39  1  0  0  0  0
 38 70  1  0  0  0  0
 38 71  1  0  0  0  0
 38 72  1  0  0  0  0
 39 40  1  0  0  0  0
 39 73  1  0  0  0  0
 39 74  1  0  0  0  0
 40 41  1  0  0  0  0
 40 75  1  0  0  0  0
 40 76  1  0  0  0  0
 41 42  2  0  0  0  0
 41 43  1  0  0  0  0
 43 77  1  0  0  0  0
M  END
> <OPENEYE_ISO_SMILES>
CC=c1c(c2n3c1=Cc4c(c(c5n4[Fe]36n7c(=Cc8n6c(=C2)c(=CC)c8C)c(c(c7=C5)CCC(=O)O)C)CCC(=O)O)C)C

> <OPENEYE_INCHI>
InChI=1S/C34H34N4O4.Fe/c1-7-21-17(3)25-13-26-19(5)23(9-11-33(39)40)31(37-26)16-32-24(10-12-34(41)42)20(6)28(38-32)15-30-22(8-2)18(4)27(36-30)14-29(21)35-25;/h7-8,13-16H,9-12H2,1-6H3,(H,39,40)(H,41,42);/q-4;+4/b21-7?,22-8?,26-13-,29-14-,30-15-,31-16-;

> <OPENEYE_INCHIKEY>
HXQIYSLZKNYNMH-LJNAALQVSA-N

> <FORMULA>
C34H34FeN4O4

$$$$
